@<TRIPOS>MOLECULE
ZINC000029161769
 39 41 1 0 0
SMALL
USER_CHARGES
NO_NAME

@<TRIPOS>ATOM
      1 C1        -25.4741   32.3689  -33.4352 C.3     1  <0>         0.0400
      2 O2        -25.1607   32.9004  -32.1463 O.3     1  <0>        -0.3000
      3 C3        -25.8056   34.0328  -31.7744 C.ar    1  <0>         0.4000
      4 C4        -26.9065   33.9716  -30.9216 C.ar    1  <0>        -0.3100
      5 C5        -27.5338   35.1516  -30.5684 C.ar    1  <0>         0.2200
      6 N6        -27.0741   36.2977  -31.0470 N.ar    1  <0>        -0.5900
      7 C7        -26.0253   36.3252  -31.8560 C.ar    1  <0>         0.6000
      8 N8        -25.5741   37.5426  -32.3354 N.pl3   1  <0>        -0.5800
      9 C9        -26.5005   38.4806  -32.9847 C.3     1  <0>         0.1100
     10 C10       -26.4194   39.8298  -32.2603 C.3     1  <0>         0.1100
     11 N11       -25.0055   40.2080  -32.1284 N.pl3   1  <0>        -0.6300
     12 C12       -24.5493   41.4394  -32.6123 C.ar    1  <0>         0.2100
     13 C13       -25.2579   42.6008  -32.3339 C.ar    1  <0>        -0.1800
     14 C14       -24.8069   43.8157  -32.8114 C.ar    1  <0>        -0.0900
     15 C15       -23.6467   43.8758  -33.5692 C.ar    1  <0>         0.0400
     16 O16       -23.2034   45.0726  -34.0394 O.3     1  <0>        -0.5000
     17 C17       -22.9381   42.7163  -33.8474 C.ar    1  <0>        -0.0900
     18 C18       -23.3849   41.5014  -33.3663 C.ar    1  <0>        -0.1800
     19 C19       -24.0790   39.2699  -31.4790 C.3     1  <0>         0.1100
     20 C20       -24.1611   37.9230  -32.1985 C.3     1  <0>         0.1100
     21 N21       -25.3943   35.2164  -32.2129 N.ar    1  <0>        -0.6300
     22 H22       -26.5365   32.1294  -33.4811 H       1  <0>         0.0600
     23 H23       -25.2347   33.1070  -34.2006 H       1  <0>         0.0600
     24 H24       -24.8901   31.4647  -33.6071 H       1  <0>         0.1000
     25 H25       -27.2615   33.0235  -30.5455 H       1  <0>         0.1500
     26 H26       -28.3897   35.1392  -29.9097 H       1  <0>         0.1800
     27 H27       -26.2184   38.6088  -34.0297 H       1  <0>         0.0700
     28 H28       -27.5172   38.0925  -32.9227 H       1  <0>         0.1100
     29 H29       -26.9485   40.5877  -32.8381 H       1  <0>         0.1000
     30 H30       -26.8682   39.7414  -31.2708 H       1  <0>         0.0700
     31 H31       -26.1617   42.5539  -31.7445 H       1  <0>         0.1300
     32 H32       -25.3578   44.7188  -32.5950 H       1  <0>         0.1300
     33 H33       -23.7762   45.8192  -33.8168 H       1  <0>         0.3800
     34 H34       -22.0350   42.7641  -34.4375 H       1  <0>         0.1300
     35 H35       -22.8331   40.5987  -33.5830 H       1  <0>         0.1300
     36 H36       -23.0623   39.6581  -31.5412 H       1  <0>         0.1000
     37 H37       -24.3612   39.1417  -30.4341 H       1  <0>         0.0700
     38 H38       -23.6318   37.1662  -31.6196 H       1  <0>         0.1100
     39 H39       -23.7135   38.0092  -33.1886 H       1  <0>         0.0700
@<TRIPOS>BOND
     1     1     2    1
     2     1    22    1
     3     1    23    1
     4     1    24    1
     5     2     3    1
     6     3    21   ar
     7     3     4   ar
     8     4     5   ar
     9     4    25    1
    10     5     6   ar
    11     5    26    1
    12     6     7   ar
    13     7     8    1
    14     7    21   ar
    15     8    20    1
    16     8     9    1
    17     9    10    1
    18     9    27    1
    19     9    28    1
    20    10    11    1
    21    10    29    1
    22    10    30    1
    23    11    12    1
    24    11    19    1
    25    12    18   ar
    26    12    13   ar
    27    13    14   ar
    28    13    31    1
    29    14    15   ar
    30    14    32    1
    31    15    16    1
    32    15    17   ar
    33    16    33    1
    34    17    18   ar
    35    17    34    1
    36    18    35    1
    37    19    20    1
    38    19    36    1
    39    19    37    1
    40    20    38    1
    41    20    39    1
@<TRIPOS>SUBSTRUCTURE
     1 <0>         1 TEMP              0 ****  ****    0 ROOT

